 12
 benzene CIS(Root=1)/STO-3G
  C           0.000000   0.000000   0.000000
  C           0.000000   0.000000   1.399040
  C           1.211605   0.000000   2.098559
  C           2.423209   0.000004   1.399038
  C           2.423209   0.000000  -0.000002
  C           1.211604  -0.000004  -0.699521
  H           1.211604  -0.000010  -1.781861
  H           3.360542   0.000000  -0.541172
  H          -0.937334   0.000002  -0.541169
  H          -0.937334   0.000000   1.940210
  H           1.211605  -0.000002   3.180899
  H           3.360543   0.000010   1.940207
